<?xml version="1.0" encoding="UTF-8"?>

<!-- generated on 06/08/21 16:43:21 by Eclipse SUMO duarouter Version 1.7.0
<configuration xmlns:xsi="http://www.w3.org/2001/XMLSchema-instance" xsi:noNamespaceSchemaLocation="http://sumo.dlr.de/xsd/duarouterConfiguration.xsd">

    <input>
        <net-file value="D:\github\sumo-learning\2021-06-08-16-43-01\osm.net.xml"/>
        <route-files value="D:\github\sumo-learning\2021-06-08-16-43-01\osm.passenger.trips.xml"/>
    </input>

    <output>
        <output-file value="routes.rou.xml"/>
        <alternatives-output value="routes.rou.alt.xml"/>
    </output>

    <time>
        <begin value="0"/>
        <end value="3600"/>
    </time>

    <report>
        <no-warnings value="true"/>
        <ignore-errors value="true"/>
        <no-step-log value="true"/>
    </report>

</configuration>
-->

<routes xmlns:xsi="http://www.w3.org/2001/XMLSchema-instance" xsi:noNamespaceSchemaLocation="http://sumo.dlr.de/xsd/routes_file.xsd">
    <vType id="veh_passenger" vClass="passenger"/>
    <vehicle id="veh0" type="veh_passenger" depart="0.00" departLane="best">
<<<<<<< HEAD
        <route edges="48768134#1 48740803#7 48740803#8 48740803#9 48740803#10 35928056#1 35928056#2 35928056#3 255431335#0 255431335#1 255431335#2 255431333#0 255431333#1 255431333#2 255431333#4 255431333#5 255431333#6 255431333#7 302110685#1 -302110685#1"/>
    </vehicle>
    <vehicle id="veh1" type="veh_passenger" depart="1.57" departLane="best">
        <route edges="244450473#4 244450473#5 244450473#6 623877960#1 198922264#1 198922264#2"/>
    </vehicle>
    <vehicle id="veh2" type="veh_passenger" depart="3.14" departLane="best">
        <route edges="49153872#1 756268867 49153880#3 518982588#19 518982588#20 555525974#0 506339442#3 506339442#4 764011472#0 51420787#0 51420787#1 51420787#2 764011473 160053377#2-AddedOnRampEdge 160053377#2 160053377#3 160053377#3-AddedOffRampEdge 48776360#0 48776360#1"/>
    </vehicle>
    <vehicle id="veh3" type="veh_passenger" depart="4.71" departLane="best">
        <route edges="518978930#3 336846053#0 336846053#1 336846053#2 336846053#3 255431333#10 255431333#11 255431333#14 255431333#15 255431333#17 506339442#1 506339442#2 506339442#3 506339442#4 764011472#0 51420787#0 51420787#1 51420787#2 764011473 160053377#2-AddedOnRampEdge 160053377#2 160053377#3 160053377#3-AddedOffRampEdge 49073277 -49073265#1 -49073265#0"/>
    </vehicle>
    <vehicle id="veh4" type="veh_passenger" depart="6.29" departLane="best">
        <route edges="304804093#1 198922266#0 506316041#5 348745652#1 348745652#2 348745652#3 348745652#4 506322859#1 506322859#2 348745651#1 348745651#2 506322872 506322863 255431333#0 255431333#1 255431333#2 255431333#4 255431333#5 255431333#6 255431333#7 302110685#1 302110685#2 304481581#0 304481581#3 -304481581#3"/>
    </vehicle>
    <vehicle id="veh5" type="veh_passenger" depart="7.86" departLane="best">
        <route edges="206062025#0 -206062025#0 303669226#0 287735311#6 287735311#7 287735311#8 287735311#9 48794914 312929519#0 312929519#1 312929519#2 312929519#3 312929519#4 312929519#5 264410579 198735199 404179543#0 404179543#1 404179543#2 404179543#3 226831229#0 226831229#1 226831229#2 226831229#3 793186868#0 793186868#1 793186868#2 299836293#0 506316044#17 48776382#9 334814745#0 334814745#1 334814745#3 334814745#4 334814745#6 334814745#7 334814745#10 334814745#11 334814745#12 334814745#13 334814745#14 334814745#15 334814745#16 334814745#17 334814745#18 334814745#19 334814745#20 334814745#21 334814745#22 506339442#1 506339442#2 506339442#3 51420791#0 51420791#1 51420791#2 51420791#3 51420791#4 51420791#6 51420791#7 51420791#8 338922081#4 338922081#5 338922081#6 338922081#7 338922081#8 338922081#9 338922081#10"/>
    </vehicle>
    <vehicle id="veh6" type="veh_passenger" depart="9.43" departLane="best">
        <route edges="-304464523#1 304464523#1 506316044#2 506316044#3 506316044#4 506316044#5 506316044#6 506316044#7 375486265#2 233952025#0 233952025#1 233952025#2 233952025#3 233952025#4 303873191#1 303873191#2 303873196#1 303873196#2 303873196#3 303873196#7 303873196#8 303873196#9 518980180 518980178 518980175 518980173#0 518980173#1 518980173#2 518980173#3 518980173#4 518980173#5 518980173#6 255431335#0 255431335#1 255431335#2 255431336 506322865#0 506322865#1 506322865#2 506322865#3 506322865#4 506322865#5 506322865#6 506322865#7 506322865#8 506322865#9 506322865#10 518982587 518982574#1 518982574#3 518982574#4 518982574#5 287735323 401628852 455330018 245644141#1 245644141#3 245644141#4 196961213#0 196961213#1 196961213#3 196961213#4 196961215#2"/>
    </vehicle>
    <vehicle id="veh7" type="veh_passenger" depart="11.00" departLane="best">
        <route edges="48768159#2 48768159#3 48768159#4 48768159#5 48768159#6 308448931 226831230#11 226831230#12 226831230#2 48740805 35928056#0 35928056#1 35928056#2 35928056#3 255431335#0 255431335#1 255431335#2 255431336 506322865#0 506322865#1 506322865#2 506322865#3 506322865#4 506322865#5 506322865#6 506322865#7 506322865#8 506322865#9 506322865#10 518982587 518982574#1 518982574#3 518982574#4 518982574#5 287735323 401628852"/>
    </vehicle>
    <vehicle id="veh8" type="veh_passenger" depart="12.57" departLane="best">
        <route edges="226831229#1 -226831229#1 -226831229#0 -404179543#3 -404179543#2 -404179543#1 -404179543#0 404179544 35928058#0 35928058#1 35928058#2 35928058#3 35928058#5 35928058#6 35928058#7 35928058#8 48740803#4 48740803#5 48740803#6 48740803#7 48740803#8 48740803#9 48740803#10 48740803#11"/>
    </vehicle>
    <vehicle id="veh9" type="veh_passenger" depart="14.14" departLane="best">
        <route edges="506316044#2 506316044#3 506316044#4 506316044#5 506316044#6 506316044#7 375486265#2 233952025#0 233952025#1 233952025#2 233952025#3 233952025#4 303873191#1 303873191#2 303873196#1 303873196#2 303873196#3 303873196#7 303873196#8 303873196#9 518980180 518980178 518980175 518980173#0 518980173#1 518980173#2 518980173#3 518980173#4 518980173#5 518980173#6 255431335#0 255431335#1 255431335#2 255431336 506322865#0 506322865#1 506322865#2 506322865#3 506322865#4 506322865#5 506322865#6 506322865#7 506322865#8 506322865#9 506322865#10 518982587 518982574#1 518982574#3 518982574#4 518982574#5 287735323 401628852 455330018 245644141#1 245644141#3 245644141#4 245649054#0 245649054#1 245649054#2 245649054#3 245649054#4 -296493637#2 -296493637#1 -296493637#0 -196961381 -296214427#12 -296214427#11 -296214427#10 -296214427#9 -256670505#5 -256670505#4 -256670505#3 -256670505#2 -256670505#1 -256670505#0"/>
    </vehicle>
    <vehicle id="veh10" type="veh_passenger" depart="15.72" departLane="best">
        <route edges="506316044#14 506316044#15 506316044#16 506316044#17 48776382#9 334814745#0 334814745#1 334814745#3 334814745#4 334814745#6 334814745#7 334814745#10 334814745#11 334814745#12 334814745#13 334814745#14 334814745#15 334814745#16 334814745#17 334814745#18 334814745#19 334814745#20 334814745#21 334814745#22 244618580#1 244618580#3 244618580#4 244618580#5 506339435#1 506339435#2 506339431#1 506339431#2 506339431#4 506339431#5 506339431#6 506322866 311359939 48794898#0"/>
    </vehicle>
    <vehicle id="veh11" type="veh_passenger" depart="17.29" departLane="best" departSpeed="max">
        <route edges="264425658#0 264425658#12 264425658#13 264425658#14 264425658#15 264425658#16 404179544 35928058#0 35928058#1 35928058#2 35928058#3 35928058#5 35928058#6 35928058#7 35928058#8 48740803#4 48740803#5 48740803#6 48740803#7 48740803#8 48740803#9 48740803#10 35928056#1 35928056#2 35928056#3 255431335#0 255431335#1 255431335#2 255431336 506322865#0 506322865#1 506322865#2 506322865#3 506322865#4 506322865#5 506322865#6 506322865#7 506322865#8 506322865#9 506322865#10 518982587 518982574#1 518982574#3 518982574#4 518982574#5 287735323 401628852 455330018 245644141#1 -155808907#3 155808907#3"/>
    </vehicle>
    <vehicle id="veh12" type="veh_passenger" depart="18.86" departLane="best">
        <route edges="-48794882#7 -48794882#6 -48794882#5 -48794882#4 -48794882#1 244450473#6 623877960#1 348745652#1 348745652#2 348745652#3 348745652#4 506322859#1 506322859#2 348745651#1 348745651#2 506322872 506322863 255431333#0 255431333#1 255431333#2 255431333#4 255431333#5 255431333#6 255431333#7 255431333#10 255431333#11 -48776405#23 49153905#1 -362781447#1 -362781447#0 -49153890#2 -49153890#1 -49153890#0"/>
    </vehicle>
    <vehicle id="veh13" type="veh_passenger" depart="20.43" departLane="best">
        <route edges="506339431#1 506339431#2 506339431#4 506339431#5 506339431#6 506322866 506322869#0 506322869#1 506322869#2 48740803#13 48740803#14 48740803#15 48740803#17 48742279#2 48742279#3 48742279#4 -30688296#15 -30688296#14 -30688296#12 -30688296#11 -30688296#10 -30688296#8 -30688296#7 -30688296#6 -30688296#5 -30688296#4 48742253#0"/>
    </vehicle>
    <vehicle id="veh14" type="veh_passenger" depart="22.00" departLane="best">
        <route edges="506316044#16 506316044#17 48776382#9 -299836295#2 -299836295#1 226831228 49153751#0 49153751#1"/>
    </vehicle>
    <vehicle id="veh15" type="veh_passenger" depart="23.57" departLane="best">
        <route edges="368877192#1 48776405#9 48776405#10 48776405#11 48776405#12 48776405#14 518982588#12 518982588#13 518982588#14 518982588#15 518982588#16 518982588#17 518982588#18 518982588#19 518982588#20 746296430#0 746296430#1 746296430#2"/>
    </vehicle>
    <vehicle id="veh16" type="veh_passenger" depart="25.15" departLane="best">
        <route edges="297603932#1 297603932#3 297603932#4 304408986#1 244618580#1 244618580#3 244618580#4 244618580#5 506339435#1 506339435#2 506339431#1 506339431#2 506339431#4 506339431#5 506339431#6 506322866 506322869#0 506322869#1 506322869#2 48740803#13 48740803#14 48740803#15 48740803#17 48742279#2 48742279#3 48742279#4 48742279#5 48742279#6 48742279#7 906806103#0 906806103#1 906806103#2 906806103#3 518973332 405980642#0 405980642#1 405980642#2 405980642#3 405980642#4 405980642#6"/>
    </vehicle>
    <vehicle id="veh17" type="veh_passenger" depart="26.72" departLane="best">
        <route edges="506322865#4 506322865#5 506322865#6 506322865#7 506322865#8 506322865#9 506322865#10 518982587 518982573 518982581 518982579#0 518982579#1 518982579#2 324741384#0 324741384#1 324741384#2 506322869#0 506322869#1 506322869#2 506322869#3 506322869#4 226831230#5 226831230#6 226831230#7 226831230#8 48740801#0 35928055#0 35928055#1 35928055#2 35928055#3 35928055#4 35928055#5 35928055#6 35928055#7 35928055#8 29558201 -312929519#5 -312929519#4 -312929519#3 -30688297#0 48742276#6 48742276#7 48742276#8 48742276#9 48742276#10"/>
    </vehicle>
    <vehicle id="veh18" type="veh_passenger" depart="28.29" departLane="best">
        <route edges="506359646#6 506359646#7 296214427#6 296214427#7 296214427#8 296214427#9 296214427#10 296214427#11 296214427#12 196961381 296493637#0 296493637#1 296493637#2 252657389#0 252657389#1 289004418#1 289004418#2 289004418#3 289004418#4 289004418#6 289004418#7 518992772#1 518992772#2 518992772#3 518992772#4 518982585 518982577#1 518982577#2 518982577#3 324741383#0 324741383#1 324741383#2 324741385 506322872 506322863 255431333#0 255431333#1 255431333#2 255431333#4 255431333#5 255431333#6 255431333#7 255431333#10 255431333#11 506339439#2 506339439#3 506339439#4 506339439#5 506339439#6 506339439#7 506339439#8 -518977865#1 -518977865#0 -518977854 -518977870 -468226875#17 -468226875#16 -468226875#15 -468226875#14 468226875#14"/>
    </vehicle>
    <vehicle id="veh20" type="veh_passenger" depart="31.43" departLane="best">
        <route edges="226831230#5 226831230#6 226831230#7 226831230#8 226831230#9 226831230#11 226831230#12 226831230#2 48740805 35928056#0 35928056#1 35928056#2 35928056#3 255431335#0 255431335#1 255431335#2 255431336 506322865#0 506322865#1 506322865#2 506322865#3 506322865#4 506322865#5 506322865#6 506322865#7 506322865#8 506322865#9 506322865#10 518982587 518982574#1 518982574#3 518982574#4 518982574#5 287735323 401628852 455330018 245644141#1 245644141#3 245644141#4 245649054#0"/>
    </vehicle>
    <vehicle id="veh21" type="veh_passenger" depart="33.00" departLane="best" departSpeed="max">
        <route edges="-48742255 464580660#1 245932669#1 245932669#2 245932669#3 35928055#6 35928055#7 35928055#8 48742276#11 48742276#12 48768159#1 48768159#2 48768159#3 48768159#4 48768159#5 48768159#6 308448931 226831230#11 226831230#12 226831230#2"/>
    </vehicle>
    <vehicle id="veh22" type="veh_passenger" depart="34.58" departLane="best">
        <route edges="-49153764#4 49153764#4 49153764#5 659855269#1 659855269#2 334814745#7 334814745#10 334814745#11 334814745#12 334814745#13 334814745#14 334814745#15 334814745#16 334814745#17 790658659 255431324#0 255431324#1 255431324#2 518977852#1 518977852#2 518978933#0 518978933#1 518978933#2 518980175 518980173#0 518980173#1 518980173#2 518980173#3 518980173#4 518980173#5 518980173#6 255431335#0 255431335#1 255431335#2 255431336 506322865#0 506322865#1 506322865#2 506322865#3 506322865#4 506322865#5 506322865#6 506322865#7 506322865#8 506322865#9 506322865#10 518982587 518982574#1 518982574#3 518982574#4 518982574#5 287735323 401628852 455330018 245644141#1 245644141#3 245644141#4"/>
    </vehicle>
    <vehicle id="veh23" type="veh_passenger" depart="36.15" departLane="best">
        <route edges="48768070#16 375486265#0 375486265#1 375486265#2 233952025#0 233952025#1 233952025#2 233952025#3 233952025#4 303873191#1 303873191#2 303873196#1 303873196#2 303873196#3 303873196#7 303873196#8 303873196#9 518980180 518980178 518980175 518980173#0 518980173#1 518980173#2 518980173#3 518980173#4 518980173#5 518980173#6 255431335#0 255431335#1 255431335#2 255431336 506322865#0 506322865#1 506322865#2 506322865#3 506322865#4 506322865#5 506322865#6 506322865#7 506322865#8 506322865#9 506322865#10 518982587 518982574#1 518982574#3 518982574#4 518982574#5 287735323 401628852 455330018 245644141#1 245644141#3 245644141#4 245649054#0 245649054#1 245649054#2 245649054#3 245649054#4 -296493637#2 -296493637#1 -296493637#0 296493635#0 296493635#1 296493635#2 296493635#3 296493635#6"/>
    </vehicle>
    <vehicle id="veh24" type="veh_passenger" depart="37.72" departLane="best">
        <route edges="241518669#17 241518669#18 241518669#19 155112335#1 155112335#4 155112335#7 155112335#10 155112335#12 155112335#15 155112335#16 155112335#19 155112335#21 155112335#22 155112335#23 401628852 288878939#0 288878939#1 288878939#2 518982581 518982580 518982584 518982588#0 518982588#1 518982588#2"/>
    </vehicle>
    <vehicle id="veh25" type="veh_passenger" depart="39.29" departLane="best">
        <route edges="48768137#9 48768137#10 48768137#11 -518977854 518977852#1 518977852#2 518978933#0 518978933#1 518978933#2 518980176 518980187#0 518980187#1 518980187#2 518980187#3 518980187#4 226831230#2 226831230#3 226831230#5 226831230#6 226831230#7 226831230#8 48740801#0 35928055#0 35928055#1 35928055#2 35928055#3 35928055#4 35928055#5 35928055#6 35928055#7 35928055#8 29558201 -312929519#5 -312929519#4 -312929519#3 -312929519#2 -312929519#1 -312929519#0 300090399#0 300090399#1 300090399#2 48742263#1 48742263#2 48742263#3"/>
    </vehicle>
    <vehicle id="veh27" type="veh_passenger" depart="42.43" departLane="best">
        <route edges="160053377#2-AddedOnRampEdge 160053377#2 160053377#3 160053377#3-AddedOffRampEdge 49073277 -49073265#1 49073265#1 49073263 906806085-AddedOnRampEdge 906806085 48776359#1 48776359#1-AddedOffRampEdge 48776357 48776357-AddedOffRampEdge 48776358#1 48776358#2 312713300#11 746296430#0 746296430#1 746296430#2 746296430#3 746296430#4 746296430#5 255431326#1 255431326#2 255431326#3 255431326#4 255431326#5 255431326#6 255431326#7 255431326#8 255431325 465196147#0 465196147#1 465196147#2 465196147#4 465196147#7 465196147#9 465196147#11 465196147#12 465196147#14 299836294 299836293#0 299836293#1 299836293#2 299836293#4 299836293#7"/>
    </vehicle>
    <vehicle id="veh28" type="veh_passenger" depart="44.00" departLane="best">
        <route edges="810568318#8 810568318#9 810568318#10 810568318#11 810568318#12 810568318#13 296493637#0 296493637#1 296493637#2 252657389#0 252657389#1 289004418#1 289004418#2 289004418#3 289004418#4 289004418#6 289004418#7 518992772#1 518992772#2 518992772#3 518992772#4 518982585 518982577#1 518982577#2 518982577#3 324741383#0 324741383#1 324741383#2 324741385 506322871#0 506322871#1 506322871#2 506322871#3 506322871#4 506322871#5 48740803#14 48740803#15 48740803#17 48742279#2"/>
    </vehicle>
    <vehicle id="veh29" type="veh_passenger" depart="45.58" departLane="best">
        <route edges="43566001#4 -43566001#4 256670505#1 256670505#2 256670505#3 256670505#4 256670505#5 296214427#9 296214427#10 296214427#11 296214427#12 196961381 296493637#0 296493637#1 296493637#2 252657389#0 252657389#1 289004418#1 289004418#2 289004418#3 289004418#4 289004418#6 289004418#7 518992773 518992771 245644142#0 245644142#1 245644142#2 245644142#4 245644142#7 245644142#8 48776405#2 48776405#3 48776405#4 48776405#5 48776405#6 48776405#9 48776405#10"/>
    </vehicle>
    <vehicle id="veh31" type="veh_passenger" depart="48.72" departLane="best">
        <route edges="255431333#1 255431333#2 255431333#4 255431333#5 255431333#6 255431333#7 255431333#10 255431333#11 255431333#14 255431333#15 255431333#17 506339442#1 506339442#2 506339442#3 506339442#4 764011472#0 764011472#1 764011472#2 764011472#3 764011472#4 764011472#6 764011472#7 764011472#8 287735313#2 287735313#3 287735313#4 287735313#5 287735313#7 287735313#10 287735313#13 241518669#8 241518669#9"/>
    </vehicle>
    <vehicle id="veh32" type="veh_passenger" depart="50.29" departLane="best">
        <route edges="196961382#2 196961379#26 196961379#27 196961379#28 289004418#1 289004418#2 289004418#3 289004418#4 289004418#6 289004418#7 518992772#1 518992772#2"/>
    </vehicle>
    <vehicle id="veh33" type="veh_passenger" depart="51.86" departLane="best">
        <route edges="51420787#7 48776405#14 48776405#16 48776405#18 48776405#19 48776405#20 48776405#22 48776405#23 506339435#1 506339435#2 506339431#1 506339431#2 506339431#4 506339431#5 506339431#6 506322866 506322863 255431333#0 255431333#1 255431333#2"/>
    </vehicle>
    <vehicle id="veh34" type="veh_passenger" depart="53.43" departLane="best">
        <route edges="48776349#4 48776349#5 304481581#6 304481581#7 313682489#0 313682489#1 51420787#10 51420787#11 51420787#13 51420787#14 51420787#15 51420787#16 51420787#17 51420787#18 51420787#19 518982573 518982582 518982586#1 518982586#2 518982586#3 518982586#6 518982586#7 518982586#8 518982586#9 518982586#10 518982586#11 303647014#3 303647014#4 303647014#5 303647014#6 303647014#7 303647014#7-AddedOffRampEdge 303647014#8 303647014#9"/>
    </vehicle>
    <vehicle id="veh35" type="veh_passenger" depart="55.01" departLane="best">
        <route edges="518980187#1 518980187#2 518980187#3 518980187#4 226831230#2 226831230#3 226831230#5 226831230#6 226831230#7 226831230#8 48740801#0 35928055#0 35928055#1 35928055#2 35928055#3 35928055#4 35928055#5 35928055#6 35928055#7 35928055#8 29558201 -312929519#5 -312929519#4 -312929519#3 -312929519#2 -312929519#1 -312929519#0 -48794914 906806088 311134633#0 311134633#1 311134633#2 311134633#3"/>
    </vehicle>
    <vehicle id="veh36" type="veh_passenger" depart="56.58" departLane="best">
        <route edges="241518669#12 241518669#15 241518669#17 241518669#18 241518669#19 312713300#2 312713300#3 312713300#4 312713300#6 312713300#7 312713300#8 312713300#9 312713300#10 312713300#11 746296430#0 746296430#1 746296430#2 746296430#3 746296430#4 746296430#5 255431326#1 255431326#2 255431326#3 255431326#4 255431326#5 255431326#6 255431326#7 255431326#8 255431325 465196147#0 465196147#1 465196147#2 465196147#4 465196147#7 465196147#9 465196147#11 465196147#12 465196147#14 299836294 -793186868#2 -793186868#1 -793186868#0 -226831229#3 -226831229#2 -226831229#1 -226831229#0 226831245#0 226831245#1"/>
    </vehicle>
    <vehicle id="veh37" type="veh_passenger" depart="58.15" departLane="best">
        <route edges="456417603 198645488#0 49153846 136814138#0 326969440#0 326969440#1 309157015#0 309157015#1 309157015#2 244509930#0 244509930#2 244509930#3 334814745#18 334814745#19 334814745#20 334814745#21 334814745#22 506339442#1 506339442#2 506339442#3 506339442#4 764011472#0 764011472#1 764011472#2 764011472#3 764011472#4 764011472#6 764011472#7 764011472#8 287735313#2 287735313#3 287735313#4 287735313#5 287735313#7 287735313#10 287735313#13 241518669#8 241518669#9 241518669#12"/>
    </vehicle>
    <vehicle id="veh38" type="veh_passenger" depart="59.72" departLane="best">
        <route edges="303647019#6 303647019#7 303647019#8 303647019#10 303647019#11 303647019#12 303647019#13 518982577#1 518982577#2 518982577#3 324741383#0 324741383#1 324741383#2 324741385 506322872 506322863 255431333#0 255431333#1 255431333#2 255431333#4 255431333#5 255431333#6 255431333#7 255431333#10 255431333#11 255431333#14 255431333#15 255431333#17 255431326#1 255431326#2 255431326#3 255431326#4 255431326#5 255431326#6 255431326#7 255431326#8 -790658659 -244509930#3 -244509930#2 -244509930#0 -309157015#2 -309157015#1 -309157015#0 49153842#1 198645488#0 198645488#1 198645488#2"/>
    </vehicle>
    <vehicle id="veh39" type="veh_passenger" depart="61.29" departLane="best">
        <route edges="906806103#0 906806103#1 906806103#2 906806103#3 518973332 405980642#0 -48794882#10 -48794882#9 -48794882#8 -48794882#7 -48794882#6 -48794882#5 -48794882#4 -48794882#1 244450473#6 623877960#1 348745652#1 348745652#2 348745652#3 348745652#4 506322859#1 506322859#2 348745651#1 348745651#2 506322872 506322863 255431333#0 255431333#1 255431333#2 255431333#4 255431333#5 255431333#6 255431333#7 255431333#10 255431333#11 255431333#14 255431333#15 255431333#17 506339442#1 506339442#2 506339442#3 51420791#0 51420791#1 51420791#2 51420791#3 51420791#4 51420791#6 51420791#7 51420791#8 338922081#4 338922081#5"/>
    </vehicle>
    <vehicle id="veh41" type="veh_passenger" depart="64.44" departLane="best">
        <route edges="-49710830#4 49710830#4 303647014#7 303647014#7-AddedOffRampEdge 313684476 593849718#8 593849718#9 593849718#10 593849718#11 303647019#1 303647019#2 303647019#3 303647019#4 303647019#5 303647019#6 303647019#7 303647019#8 303647019#10 303647019#11 303647019#12 303647019#13 518982577#1 518982577#2 518982577#3 324741383#0 324741383#1 324741383#2 324741385 506322871#0 506322871#1 506322871#2 506322871#3 506322871#4 506322871#5 506322871#6 506322869#4 226831230#5 226831230#6 226831230#7 226831230#8 48740801#0 48740801#1 48740801#2 48740801#3 48740801#4 48740801#5 48740801#6 48740801#7 198735199 404179543#0 404179543#1 404179543#2 404179543#3 226831229#0 226831229#1 226831229#2 226831229#3 -793186869 48742276#25 48742276#26"/>
    </vehicle>
    <vehicle id="veh42" type="veh_passenger" depart="66.01" departLane="best" departSpeed="max">
        <route edges="506316035#0 506316035#1 506316035#4 506316035#5 506316035#6 506316035#7 196961382#0 196961382#1 196961382#2 196961216#2 196961216#3 196961216#4 196961216#5 49073268 506316041#1 506316041#2 506316041#3 506316041#4 506316041#5 623877957#1 304850037#1 304850037#2 304850037#3 304850037#4 304850037#5 304850037#6 304850037#8"/>
    </vehicle>
    <vehicle id="veh43" type="veh_passenger" depart="67.58" departLane="best">
        <route edges="-362781444 -362781447#0 229061414#3 48776405#22 48776405#23 506339435#1 506339435#2 506339431#1 506339431#2 506339431#4 506339431#5 506339431#6 506322866 506322869#0 506322869#1 506322869#2 506322869#3 506322869#4 226831230#5 226831230#6 226831230#7 226831230#8 48740801#0 35928055#0 35928055#1 35928055#2 35928055#3 35928055#4 35928055#5 35928055#6 35928055#7 35928055#8 29558201 -312929519#5 -312929519#4 -312929519#3 -312929519#2 -312929519#1 -312929519#0 300090399#0"/>
    </vehicle>
    <vehicle id="veh44" type="veh_passenger" depart="69.15" departLane="best">
        <route edges="906806102#3 906806102#4 405980642#0 -48794882#10 -48794882#9 -48794882#8 -48794882#7 -48794882#6 -48794882#5 -48794882#4 -48794882#1 244450473#6 623877960#1 348745652#1 348745652#2 348745652#3 348745652#4 506322859#1 506322859#2 348745651#1 348745651#2 506322871#0 506322871#1 506322871#2 506322871#3 506322871#4 506322871#5 506322871#6 506322869#4 226831230#5 226831230#6 226831230#7 226831230#8 48740801#0 48740801#1 48740801#2 48740801#3 48740801#4 48740801#5 48740801#6 48742276#12 48742276#13 35928058#0 35928058#1 35928058#2 35928058#3 35928058#5"/>
    </vehicle>
    <vehicle id="veh45" type="veh_passenger" depart="70.72" departLane="best">
        <route edges="668037885 48768159#0 48768159#1 48768159#2 48768159#3 48768159#4 48768159#5 48768159#6 308448931 226831230#11 226831230#12 226831230#2 48740805 35928056#0 35928056#1 35928056#2 35928056#3 255431335#0 255431335#1 255431335#2 255431336 506322865#0 506322865#1 506322865#2 506322865#3 506322865#4 506322865#5 506322865#6 506322865#7 506322865#8 506322865#9 506322865#10 518982587 518982574#1 518982574#3 518982574#4 518982574#5 287735323 401628852 455330018 245644141#1 245644141#3 245644141#4 245649054#0 245649054#1 245649054#2 245649054#3 245649054#4 -296493637#2 -296493637#1 -296493637#0 -810568318#13 -810568318#12 -810568318#11 -810568318#10 -810568318#9 -810568318#8 -810568318#7 -810568318#6 506359646#10 506359646#11 506359646#12 506359646#13"/>
    </vehicle>
    <vehicle id="veh46" type="veh_passenger" depart="72.29" departLane="best">
        <route edges="-258281026#6 258281026#6 258281026#7 258281026#8 51420787#11 51420787#13 51420787#14 51420787#15 51420787#16 51420787#17 51420787#18 51420787#19 518982573 518982581 518982579#0 518982579#1 518982579#2 324741384#0 324741384#1 324741384#2 311359939 48794898#0 48794898#1 48794898#2 506322861#1 506322861#4 506322861#5 506322861#6 623877957#1 623877957#2 196961209#1 49073260#1 49073260#2 49073260#3"/>
    </vehicle>
    <vehicle id="veh47" type="veh_passenger" depart="73.87" departLane="best">
        <route edges="48794882#10 -48794882#10 -48794882#9 -48794882#8 -48794882#7 -48794882#6 -48794882#5 -48794882#4 -48794882#1 244450473#6 623877960#1 348745652#1 348745652#2 348745652#3 348745652#4 506322859#1 506322859#2 348745651#1 348745651#2 506322872 506322863 255431333#0 255431333#1 255431333#2 255431333#4 255431333#5 255431333#6 255431333#7 255431333#10 255431333#11 -48776405#23 49153905#1 49153905#2 49153895#0 49153895#1 362781463#0 362781463#1"/>
    </vehicle>
    <vehicle id="veh48" type="veh_passenger" depart="75.44" departLane="best">
        <route edges="241518669#17 241518669#18 241518669#19 312713300#2 312713300#3 312713300#4 312713300#6 312713300#7 312713300#8 312713300#9 312713300#10 312713300#11 746296430#0 746296430#1 746296430#2 746296430#3 746296430#4 746296430#5 244618580#1 244618580#3 244618580#4 244618580#5 506339435#1 506339435#2 506339431#1 506339431#2 506339431#4 506339431#5 506339431#6 506322866 506322869#0 506322869#1 506322869#2 48740803#13 48740803#14 48740803#15 48740803#17 48742279#2 48742279#3"/>
    </vehicle>
    <vehicle id="veh49" type="veh_passenger" depart="77.01" departLane="best">
        <route edges="-49710843#1 49710843#1 -49710837#3 -49710837#2 -49710837#1 245649054#2 245649054#3 245649054#4 252657389#0 252657389#1 289004418#1 289004418#2 289004418#3 289004418#4 289004418#6 289004418#7 518992772#1 518992772#2 518992772#3 518992772#4 518982585 518982577#1 518982577#2 518982577#3 324741383#0 324741383#1 324741383#2 324741385 506322871#0 506322871#1 506322871#2 506322871#3 506322871#4 506322871#5 48740803#14 48740803#15 48740803#17 48742279#2 48742279#3 48742279#4 -30688296#15 -30688296#14 -30688296#12 -30688296#11 -30688296#10 -30688296#8 -30688296#7 -30688296#6 -30688296#5 -30688296#4 -30688296#3 -30688296#2 -30688296#1 -30688296#0 30688297#0 30688297#1 30688297#2 30688297#3 30688297#4"/>
    </vehicle>
    <vehicle id="veh50" type="veh_passenger" depart="78.58" departLane="best">
        <route edges="311134633#1 -304544026#0 -206062025#1 -206062025#0 303669226#0 287735311#6 287735311#7 287735311#8 287735311#9 48794914 312929519#0 312929519#1 312929519#2 -30688297#0 30688296#0 30688296#1 30688296#2 30688296#3 30688296#4 30688296#5 30688296#6 30688296#7 30688296#8 30688296#10 30688296#11 30688296#12 30688296#14 30688296#15 30688296#16 239206121#0 239206121#1 239206121#2 239206121#3 239206121#4 239206121#5 239206121#6 239206121#7 239206121#8 239206121#9 506322861#4 506322861#5 506322861#6 623877957#1 623877957#2 623877960#1"/>
    </vehicle>
    <vehicle id="veh51" type="veh_passenger" depart="80.15" departLane="best">
        <route edges="51420787#5 51420787#7 48776405#14 518982588#12 518982588#13 518982588#14 518982588#15 518982588#16 518982588#17 518982588#18 518982588#19 518982588#20 555525974#0 506339442#3 506339442#4 764011472#0 764011472#1 764011472#2 764011472#3 764011472#4 764011472#6 764011472#7 764011472#8 287735313#2 287735313#3 287735313#4 287735313#5 287735313#7 287735313#10 287735313#13 241518669#8 241518669#9 241518669#12 241518669#15"/>
    </vehicle>
    <vehicle id="veh52" type="veh_passenger" depart="81.72" departLane="best" departSpeed="max">
        <route edges="338922081#0 338922081#4 338922081#5 338922081#6 338922081#7 338922081#8 338922081#9 338922081#10 338922081#11 338922081#13 338922081#14 51420787#0 312713300#10 312713300#11 746296430#0 746296430#1 746296430#2 746296430#3 746296430#4 746296430#5 244618580#1 244618580#3 244618580#4 244618580#5 506339435#1 506339435#2 506339431#1 506339431#2 506339431#4 506339431#5 506339431#6 506322866 311359939 48794898#0 48794898#1 48794898#2 506322861#1 506322861#4 506322861#5 506322861#6 196961202#1 196961202#2"/>
    </vehicle>
    <vehicle id="veh53" type="veh_passenger" depart="83.29" departLane="best">