<?xml version="1.0" encoding="UTF-8"?>

<!-- generated on 11/10/20 20:05:03 by Eclipse SUMO GUI Version 1.7.0
-->

<configuration xmlns:xsi="http://www.w3.org/2001/XMLSchema-instance" xsi:noNamespaceSchemaLocation="http://sumo.dlr.de/xsd/sumoConfiguration.xsd">

    <input>
        <net-file value="D:\SUMO\tools\2020-11-10-20-01-11\osm.net.xml"/>
        <route-files value="D:\SUMO\tools\2020-11-10-20-01-11\osm_pt.rou.xml,D:\SUMO\tools\2020-11-10-20-01-11\osm.passenger.trips.xml"/>
        <additional-files value="D:\SUMO\tools\2020-11-10-20-01-11\osm.poly.xml,D:\SUMO\tools\2020-11-10-20-01-11\osm_stops.add.xml"/>
    </input>

    <processing>
        <ignore-route-errors value="true"/>
    </processing>

    <routing>
        <device.rerouting.adaptation-steps value="180"/>
    </routing>

    <report>
        <verbose value="true"/>
        <duration-log.statistics value="true"/>
        <no-step-log value="true"/>
    </report>

    <gui_only>
        <gui-settings-file value="D:\SUMO\tools\2020-11-10-20-01-11\osm.view.xml"/>
    </gui_only>

</configuration>
