<?xml version="1.0" encoding="UTF-8"?>

<!-- generated on 11/05/20 19:34:21 by Eclipse SUMO netedit Version 1.7.0
<configuration xmlns:xsi="http://www.w3.org/2001/XMLSchema-instance" xsi:noNamespaceSchemaLocation="http://sumo.dlr.de/xsd/netconvertConfiguration.xsd">

    <output>
        <output-file value="D:\github\sumo-learning\test02\test02.net.xml"/>
    </output>

    <processing>
        <offset.disable-normalization value="true"/>
    </processing>

    <junctions>
        <no-turnarounds value="true"/>
    </junctions>

    <report>
        <aggregate-warnings value="5"/>
    </report>

</configuration>
-->

<net version="1.6" junctionCornerDetail="5" limitTurnSpeed="5.50" xmlns:xsi="http://www.w3.org/2001/XMLSchema-instance" xsi:noNamespaceSchemaLocation="http://sumo.dlr.de/xsd/net_file.xsd">

    <location netOffset="0.00,0.00" convBoundary="-38.37,60.09,179.08,85.26" origBoundary="10000000000.00,10000000000.00,-10000000000.00,-10000000000.00" projParameter="!"/>

    <edge id=":gneJ3_0" function="internal">
        <lane id=":gneJ3_0_0" index="0" speed="9.50" length="2.63" shape="-2.94,53.23 -1.82,52.59 -0.99,52.24 -0.10,52.11 1.19,52.09"/>
        <lane id=":gneJ3_0_1" index="1" speed="7.48" length="2.63" shape="-1.29,55.97 -0.62,55.59 -0.12,55.38 0.41,55.30 1.19,55.29"/>
        <lane id=":gneJ3_0_2" index="2" speed="13.89" length="2.63" shape="0.36,58.71 0.59,58.59 0.75,58.52 0.93,58.49 1.19,58.49"/>
    </edge>
    <edge id=":gneJ4_0" function="internal">
        <lane id=":gneJ4_0_0" index="0" speed="9.33" length="2.75" shape="139.53,52.09 140.88,52.11 141.81,52.26 142.67,52.63 143.82,53.34"/>
        <lane id=":gneJ4_0_1" index="1" speed="7.35" length="2.75" shape="139.53,55.29 140.34,55.30 140.90,55.39 141.41,55.61 142.11,56.04"/>
        <lane id=":gneJ4_0_2" index="2" speed="13.89" length="2.75" shape="139.53,58.49 139.80,58.49 139.98,58.52 140.16,58.59 140.39,58.74"/>
    </edge>

    <edge id="gneE1" from="gneJ2" to="gneJ3" priority="-1">
        <lane id="gneE1_0" index="0" speed="13.89" length="46.18" shape="-42.50,77.08 -2.94,53.23"/>
        <lane id="gneE1_1" index="1" speed="13.89" length="46.18" shape="-40.84,79.82 -1.29,55.97"/>
        <lane id="gneE1_2" index="2" speed="13.89" length="46.18" shape="-39.19,82.56 0.36,58.71"/>
    </edge>
    <edge id="gneE2" from="gneJ3" to="gneJ4" priority="-1">
        <lane id="gneE2_0" index="0" speed="13.89" length="138.34" shape="1.19,52.09 139.53,52.09"/>
        <lane id="gneE2_1" index="1" speed="13.89" length="138.34" shape="1.19,55.29 139.53,55.29"/>
        <lane id="gneE2_2" index="2" speed="13.89" length="138.34" shape="1.19,58.49 139.53,58.49"/>
    </edge>
    <edge id="gneE3" from="gneJ4" to="gneJ5" priority="-1">
        <lane id="gneE3_0" index="0" speed="13.89" length="46.88" shape="143.82,53.34 183.38,78.51"/>
        <lane id="gneE3_1" index="1" speed="13.89" length="46.88" shape="142.11,56.04 181.66,81.21"/>
        <lane id="gneE3_2" index="2" speed="13.89" length="46.88" shape="140.39,58.74 179.94,83.91"/>
    </edge>

    <junction id="gneJ2" type="dead_end" x="-38.37" y="83.93" incLanes="" intLanes="" shape="-38.37,83.93 -43.32,75.71"/>
    <junction id="gneJ3" type="priority" x="1.19" y="60.09" incLanes="gneE1_0 gneE1_1 gneE1_2" intLanes=":gneJ3_0_0 :gneJ3_0_1 :gneJ3_0_2" shape="1.19,60.09 1.19,50.49 -0.75,50.55 -1.43,50.68 -2.08,50.92 -2.82,51.30 -3.77,51.86">
        <request index="0" response="000" foes="000" cont="0"/>
        <request index="1" response="000" foes="000" cont="0"/>
        <request index="2" response="000" foes="000" cont="0"/>
    </junction>
    <junction id="gneJ4" type="priority" x="139.53" y="60.09" incLanes="gneE2_0 gneE2_1 gneE2_2" intLanes=":gneJ4_0_0 :gneJ4_0_1 :gneJ4_0_2" shape="139.53,60.09 144.68,51.99 142.94,50.96 142.26,50.70 141.55,50.55 140.69,50.50 139.53,50.49">
        <request index="0" response="000" foes="000" cont="0"/>
        <request index="1" response="000" foes="000" cont="0"/>
        <request index="2" response="000" foes="000" cont="0"/>
    </junction>
    <junction id="gneJ5" type="dead_end" x="179.08" y="85.26" incLanes="gneE3_0 gneE3_1 gneE3_2" intLanes="" shape="184.24,77.16 179.08,85.26"/>

    <connection from="gneE1" to="gneE2" fromLane="0" toLane="0" via=":gneJ3_0_0" dir="s" state="M"/>
    <connection from="gneE1" to="gneE2" fromLane="1" toLane="1" via=":gneJ3_0_1" dir="s" state="M"/>
    <connection from="gneE1" to="gneE2" fromLane="2" toLane="2" via=":gneJ3_0_2" dir="s" state="M"/>
    <connection from="gneE2" to="gneE3" fromLane="0" toLane="0" via=":gneJ4_0_0" dir="s" state="M"/>
    <connection from="gneE2" to="gneE3" fromLane="1" toLane="1" via=":gneJ4_0_1" dir="s" state="M"/>
    <connection from="gneE2" to="gneE3" fromLane="2" toLane="2" via=":gneJ4_0_2" dir="s" state="M"/>

    <connection from=":gneJ3_0" to="gneE2" fromLane="0" toLane="0" dir="s" state="M"/>
    <connection from=":gneJ3_0" to="gneE2" fromLane="1" toLane="1" dir="s" state="M"/>
    <connection from=":gneJ3_0" to="gneE2" fromLane="2" toLane="2" dir="s" state="M"/>
    <connection from=":gneJ4_0" to="gneE3" fromLane="0" toLane="0" dir="s" state="M"/>
    <connection from=":gneJ4_0" to="gneE3" fromLane="1" toLane="1" dir="s" state="M"/>
    <connection from=":gneJ4_0" to="gneE3" fromLane="2" toLane="2" dir="s" state="M"/>

</net>
