<?xml version="1.0" encoding="UTF-8"?>

<!-- generated on 10/30/20 05:13:57 by Eclipse SUMO GUI Version 1.7.0
-->

<configuration xmlns:xsi="http://www.w3.org/2001/XMLSchema-instance" xsi:noNamespaceSchemaLocation="http://sumo.dlr.de/xsd/sumoConfiguration.xsd">

    <input>
        <net-file value="D:\github\sumo-learning\helloWorld\helloWorld.net.xml"/>
        <route-files value="D:\github\sumo-learning\helloWorld\helloWorld.rou.xml"/>
    </input>

</configuration>
